<?xml version="1.0" encoding="UTF-8"?>

<!-- generated on 2024-06-05 13:33:04 by 
<configuration xmlns:xsi="http://www.w3.org/2001/XMLSchema-instance" xsi:noNamespaceSchemaLocation="http://sumo.dlr.de/xsd/Configuration.xsd">

    <input>
        <osm-files value="TRUE"/>
    </input>

    <output>
        <opendrive-output value="TRUE"/>
    </output>

    <projection>
        <proj value="+proj=tmerc"/>
    </projection>

    <processing>
        <geometry.remove value="true"/>
        <roundabouts.guess value="true"/>
        <edges.join value="true"/>
    </processing>

    <building_defaults>
        <default.lanewidth value="6.000000"/>
        <default.sidewalk-width value="2.800000"/>
    </building_defaults>

    <tls_building>
        <tls.group-signals value="true"/>
    </tls_building>

    <ramp_guessing>
        <ramps.guess value="true"/>
    </ramp_guessing>

    <edge_removal>
        <keep-edges.by-type value="highway.motorway,highway.motorway_link,highway.trunk,highway.trunk_link,highway.primary,highway.primary_link,highway.secondary,highway.secondary_link,highway.tertiary,highway.tertiary_link,highway.unclassified,highway.residential,"/>
    </edge_removal>

    <junctions>
        <junctions.join value="true"/>
    </junctions>

    <pedestrian>
        <sidewalks.guess value="true"/>
    </pedestrian>

    <formats>
        <osm.sidewalks value="true"/>
        <osm.crossings value="true"/>
    </formats>

    <report>
        <aggregate-warnings value="5"/>
    </report>

</configuration>
-->

<OpenDRIVE>
    <header revMajor="1" revMinor="4" name="" version="1.00" date="Wed Jun  5 13:33:04 2024" north="4426.98" south="0.00" east="10270.04" west="0.00">
        <geoReference>
 <![CDATA[
 +proj=tmerc
]]>
        </geoReference>
        <offset x="8839997.50" y="-7890880.69" z="0.00" hdg="0"/>
    </header>
    <road name="Northwest 16th Street" length="53.82486056" id="1660" junction="-1">
        <link>
            <predecessor elementType="junction" elementId="1"/>
            <successor elementType="junction" elementId="2"/>
        </link>
        <type s="0" type="town"/>
        <planView>
            <geometry s="0.00000000" x="3458.52684814" y="282.83360527" hdg="-1.22276516" length="31.99071299">
                <line/>
            </geometry>
            <geometry s="31.99071299" x="3469.43720643" y="252.76086346" hdg="-1.22276516" length="13.74007867">
                <paramPoly3 aU="0.00000000" bU="10.27621344" cU="10.27243304" dU="-7.03285572" aV="0.00000000" bV="0.00000000" cV="-3.41916258" dV="1.17022195" pRange="normalized"/>
            </geometry>
            <geometry s="45.73079167" x="3471.93262780" y="239.28840245" hdg="-1.55253105" length="8.09406890">
                <line/>
            </geometry>
        </planView>
        <elevationProfile>
            <elevation s="0" a="0.00" b="0" c="0" d="0"/>
        </elevationProfile>
        <lateralProfile/>
        <lanes>
            <laneSection s="0">
                <center>
                    <lane id="0" type="none" level="true">
                        <link/>
                        <roadMark sOffset="0" type="solid" weight="standard" color="standard" width="0.13" laneChange="none"/>
                    </lane>
                </center>
                <right>
                    <lane id="-1" type="driving" level="true">
                        <link/>
                        <width sOffset="0" a="6.00" b="0" c="0" d="0"/>
                        <roadMark sOffset="0" type="solid" weight="standard" color="standard" width="0.13" laneChange="none"/>
                        <speed sOffset="0" max="13.89"/>
                    </lane>
                    <lane id="-2" type="sidewalk" level="true">
                        <link/>
                        <width sOffset="0" a="2.80" b="0" c="0" d="0"/>
                        <roadMark sOffset="0" type="solid" weight="standard" color="standard" width="0.13" laneChange="none"/>
                        <speed sOffset="0" max="13.89"/>
                    </lane>
                 </right>
            </laneSection>
        </lanes>
        <objects/>
    </road>
    <road name="Northwest 16th Street" length="68.46445925" id="1661" junction="-1">
        <link>
            <predecessor elementType="junction" elementId="3"/>
            <successor elementType="junction" elementId="1"/>
        </link>
        <type s="0" type="town"/>
        <planView>
            <geometry s="0.00000000" x="3435.09616794" y="347.48307032" hdg="-1.22309501" length="68.46445925">
                <line/>
            </geometry>
        </planView>
        <elevationProfile>
            <elevation s="0" a="0.00" b="0" c="0" d="0"/>
        </elevationProfile>
        <lateralProfile/>
        <lanes>
            <laneSection s="0">
                <center>
                    <lane id="0" type="none" level="true">
                        <link/>
                        <roadMark sOffset="0" type="solid" weight="standard" color="standard" width="0.13" laneChange="none"/>
                    </lane>
                </center>
                <right>
                    <lane id="-1" type="driving" level="true">
                        <link/>
                        <width sOffset="0" a="6.00" b="0" c="0" d="0"/>
                        <roadMark sOffset="0" type="solid" weight="standard" color="standard" width="0.13" laneChange="none"/>
                        <speed sOffset="0" max="13.89"/>
                    </lane>
                    <lane id="-2" type="sidewalk" level="true">
                        <link/>
                        <width sOffset="0" a="2.80" b="0" c="0" d="0"/>
                        <roadMark sOffset="0" type="solid" weight="standard" color="standard" width="0.13" laneChange="none"/>
                        <speed sOffset="0" max="13.89"/>
                    </lane>
                 </right>
            </laneSection>
        </lanes>
        <objects/>
    </road>
    <road name="Northwest 16th Street" length="64.24579367" id="1662" junction="-1">
        <link>
            <predecessor elementType="junction" elementId="4"/>
            <successor elementType="junction" elementId="3"/>
        </link>
        <type s="0" type="town"/>
        <planView>
            <geometry s="0.00000000" x="3413.09530925" y="408.16355806" hdg="-1.22296813" length="64.24579367">
                <line/>
            </geometry>
        </planView>
        <elevationProfile>
            <elevation s="0" a="0.00" b="0" c="0" d="0"/>
        </elevationProfile>
        <lateralProfile/>
        <lanes>
            <laneSection s="0">
                <center>
                    <lane id="0" type="none" level="true">
                        <link/>
                        <roadMark sOffset="0" type="solid" weight="standard" color="standard" width="0.13" laneChange="none"/>
                    </lane>
                </center>
                <right>
                    <lane id="-1" type="driving" level="true">
                        <link/>
                        <width sOffset="0" a="6.00" b="0" c="0" d="0"/>
                        <roadMark sOffset="0" type="solid" weight="standard" color="standard" width="0.13" laneChange="none"/>
                        <speed sOffset="0" max="13.89"/>
                    </lane>
                    <lane id="-2" type="sidewalk" level="true">
                        <link/>
                        <width sOffset="0" a="2.80" b="0" c="0" d="0"/>
                        <roadMark sOffset="0" type="solid" weight="standard" color="standard" width="0.13" laneChange="none"/>
                        <speed sOffset="0" max="13.89"/>
                    </lane>
                 </right>
            </laneSection>
        </lanes>
        <objects/>
    </road>
    <road name="Northwest 16th Street" length="64.62598891" id="1663" junction="-1">
        <link>
            <predecessor elementType="junction" elementId="5"/>
            <successor elementType="junction" elementId="4"/>
        </link>
        <type s="0" type="town"/>
        <planView>
            <geometry s="0.00000000" x="3390.98034675" y="469.20708391" hdg="-1.22322274" length="64.62598891">
                <line/>
            </geometry>
        </planView>
        <elevationProfile>
            <elevation s="0" a="0.00" b="0" c="0" d="0"/>
        </elevationProfile>
        <lateralProfile/>
        <lanes>
            <laneSection s="0">
                <center>
                    <lane id="0" type="none" level="true">
                        <link/>
                        <roadMark sOffset="0" type="solid" weight="standard" color="standard" width="0.13" laneChange="none"/>
                    </lane>
                </center>
                <right>
                    <lane id="-1" type="driving" level="true">
                        <link/>
                        <width sOffset="0" a="6.00" b="0" c="0" d="0"/>
                        <roadMark sOffset="0" type="solid" weight="standard" color="standard" width="0.13" laneChange="none"/>
                        <speed sOffset="0" max="13.89"/>
                    </lane>
                    <lane id="-2" type="sidewalk" level="true">
                        <link/>
                        <width sOffset="0" a="2.80" b="0" c="0" d="0"/>
                        <roadMark sOffset="0" type="solid" weight="standard" color="standard" width="0.13" laneChange="none"/>
                        <speed sOffset="0" max="13.89"/>
                    </lane>
                 </right>
            </laneSection>
        </lanes>
        <objects/>
    </road>
    <road name="Northwest 16th Street" length="29.58929263" id="1664" junction="-1">
        <link>
            <predecessor elementType="junction" elementId="6"/>
            <successor elementType="junction" elementId="5"/>
        </link>
        <type s="0" type="town"/>
        <planView>
            <geometry s="0.00000000" x="3380.78267149" y="497.30292246" hdg="-1.22261949" length="29.58929263">
                <line/>
            </geometry>
        </planView>
        <elevationProfile>
            <elevation s="0" a="0.00" b="0" c="0" d="0"/>
        </elevationProfile>
        <lateralProfile/>
        <lanes>
            <laneSection s="0">
                <center>
                    <lane id="0" type="none" level="true">
                        <link/>
                        <roadMark sOffset="0" type="solid" weight="standard" color="standard" width="0.13" laneChange="none"/>
                    </lane>
                </center>
                <right>
                    <lane id="-1" type="driving" level="true">
                        <link/>
                        <width sOffset="0" a="6.00" b="0" c="0" d="0"/>
                        <roadMark sOffset="0" type="solid" weight="standard" color="standard" width="0.13" laneChange="none"/>
                        <speed sOffset="0" max="13.89"/>
                    </lane>
                    <lane id="-2" type="sidewalk" level="true">
                        <link/>
                        <width sOffset="0" a="2.80" b="0" c="0" d="0"/>
                        <roadMark sOffset="0" type="solid" weight="standard" color="standard" width="0.13" laneChange="none"/>
                        <speed sOffset="0" max="13.89"/>
                    </lane>
                 </right>
            </laneSection>
        </lanes>
        <objects/>
    </road>
    <road name="Northwest 16th Street" length="61.21788228" id="1665" junction="-1">
        <link>
            <predecessor elementType="junction" elementId="7"/>
            <successor elementType="junction" elementId="6"/>
        </link>
        <type s="0" type="town"/>
        <planView>
            <geometry s="0.00000000" x="3359.82802766" y="555.14192801" hdg="-1.22321411" length="61.21788228">
                <line/>
            </geometry>
        </planView>
        <elevationProfile>
            <elevation s="0" a="0.00" b="0" c="0" d="0"/>
        </elevationProfile>
        <lateralProfile/>
        <lanes>
            <laneSection s="0">
                <center>
                    <lane id="0" type="none" level="true">
                        <link/>
                        <roadMark sOffset="0" type="solid" weight="standard" color="standard" width="0.13" laneChange="none"/>
                    </lane>
                </center>
                <right>
                    <lane id="-1" type="driving" level="true">
                        <link/>
                        <width sOffset="0" a="6.00" b="0" c="0" d="0"/>
                        <roadMark sOffset="0" type="solid" weight="standard" color="standard" width="0.13" laneChange="none"/>
                        <speed sOffset="0" max="13.89"/>
                    </lane>
                    <lane id="-2" type="sidewalk" level="true">
                        <link/>
                        <width sOffset="0" a="2.80" b="0" c="0" d="0"/>
                        <roadMark sOffset="0" type="solid" weight="standard" color="standard" width="0.13" laneChange="none"/>
                        <speed sOffset="0" max="13.89"/>
                    </lane>
                 </right>
            </laneSection>
        </lanes>
        <objects/>
    </road>
    <road name="Northwest 16th Street" length="26.48000346" id="1666" junction="-1">
        <link>
            <predecessor elementType="junction" elementId="8"/>
            <successor elementType="junction" elementId="7"/>
        </link>
        <type s="0" type="town"/>
        <planView>
            <geometry s="0.00000000" x="3343.77487059" y="599.41446636" hdg="-1.22286326" length="26.48000346">
                <line/>
            </geometry>
        </planView>
        <elevationProfile>
            <elevation s="0" a="0.00" b="0" c="0" d="0"/>
        </elevationProfile>
        <lateralProfile/>
        <lanes>
            <laneSection s="0">
                <center>
                    <lane id="0" type="none" level="true">
                        <link/>
                        <roadMark sOffset="0" type="solid" weight="standard" color="standard" width="0.13" laneChange="none"/>
                    </lane>
                </center>
                <right>
                    <lane id="-1" type="driving" level="true">
                        <link/>
                        <width sOffset="0" a="6.00" b="0" c="0" d="0"/>
                        <roadMark sOffset="0" type="solid" weight="standard" color="standard" width="0.13" laneChange="none"/>
                        <speed sOffset="0" max="13.89"/>
                    </lane>
                    <lane id="-2" type="sidewalk" level="true">
                        <link/>
                        <width sOffset="0" a="2.80" b="0" c="0" d="0"/>
                        <roadMark sOffset="0" type="solid" weight="standard" color="standard" width="0.13" laneChange="none"/>
                        <speed sOffset="0" max="13.89"/>
                    </lane>
                 </right>
            </laneSection>
        </lanes>
        <objects/>
    </road>
    <road name="Northwest 16th Street" length="31.86760262" id="1667" junction="-1">
        <link>
            <predecessor elementType="junction" elementId="9"/>
            <successor elementType="junction" elementId="8"/>
        </link>
        <type s="0" type="town"/>
        <planView>
            <geometry s="0.00000000" x="3332.80258241" y="629.65291003" hdg="-1.22271146" length="31.86760262">
                <line/>
            </geometry>
        </planView>
        <elevationProfile>
            <elevation s="0" a="0.00" b="0" c="0" d="0"/>
        </elevationProfile>
        <lateralProfile/>
        <lanes>
            <laneSection s="0">
                <center>
                    <lane id="0" type="none" level="true">
                        <link/>
                        <roadMark sOffset="0" type="solid" weight="standard" color="standard" width="0.13" laneChange="none"/>
                    </lane>
                </center>
                <right>
                    <lane id="-1" type="driving" level="true">
                        <link/>
                        <width sOffset="0" a="6.00" b="0" c="0" d="0"/>
                        <roadMark sOffset="0" type="solid" weight="standard" color="standard" width="0.13" laneChange="none"/>
                        <speed sOffset="0" max="13.89"/>
                    </lane>
                    <lane id="-2" type="sidewalk" level="true">
                        <link/>
                        <width sOffset="0" a="2.80" b="0" c="0" d="0"/>
                        <roadMark sOffset="0" type="solid" weight="standard" color="standard" width="0.13" laneChange="none"/>
                        <speed sOffset="0" max="13.89"/>
                    </lane>
                 </right>
            </laneSection>
        </lanes>
        <objects/>
    </road>
    <road name="Northwest 16th Street" length="109.24683989" id="1668" junction="-1">
        <link>
            <predecessor elementType="junction" elementId="10"/>
            <successor elementType="junction" elementId="9"/>
        </link>
        <type s="0" type="town"/>
        <planView>
            <geometry s="0.00000000" x="3295.46362548" y="732.63985899" hdg="-1.22297660" length="109.24683989">
                <line/>
            </geometry>
        </planView>
        <elevationProfile>
            <elevation s="0" a="0.00" b="0" c="0" d="0"/>
        </elevationProfile>
        <lateralProfile/>
        <lanes>
            <laneSection s="0">
                <center>
                    <lane id="0" type="none" level="true">
                        <link/>
                        <roadMark sOffset="0" type="solid" weight="standard" color="standard" width="0.13" laneChange="none"/>
                    </lane>
                </center>
                <right>
                    <lane id="-1" type="driving" level="true">
                        <link/>
                        <width sOffset="0" a="6.00" b="0" c="0" d="0"/>
                        <roadMark sOffset="0" type="solid" weight="standard" color="standard" width="0.13" laneChange="none"/>
                        <speed sOffset="0" max="13.89"/>
                    </lane>
                    <lane id="-2" type="sidewalk" level="true">
                        <link/>
                        <width sOffset="0" a="2.80" b="0" c="0" d="0"/>
                        <roadMark sOffset="0" type="solid" weight="standard" color="standard" width="0.13" laneChange="none"/>
                        <speed sOffset="0" max="13.89"/>
                    </lane>
                 </right>
            </laneSection>
        </lanes>
        <objects/>
    </road>
    <road name="Northwest 16th Street" length="54.14468398" id="1669" junction="-1">
        <link>
            <predecessor elementType="junction" elementId="11"/>
            <successor elementType="junction" elementId="10"/>
        </link>
        <type s="0" type="town"/>
        <planView>
            <geometry s="0.00000000" x="3269.87693118" y="802.89350492" hdg="-1.22128403" length="54.14468398">
                <line/>
            </geometry>
        </planView>
        <elevationProfile>
            <elevation s="0" a="0.00" b="0" c="0" d="0"/>
        </elevationProfile>
        <lateralProfile/>
        <lanes>
            <laneSection s="0">
                <center>
                    <lane id="0" type="none" level="true">
                        <link/>
                        <roadMark sOffset="0" type="solid" weight="standard" color="standard" width="0.13" laneChange="none"/>
                    </lane>
                </center>
                <right>
                    <lane id="-1" type="driving" level="true">
                        <link/>
                        <width sOffset="0" a="6.00" b="0" c="0" d="0"/>
                        <roadMark sOffset="0" type="solid" weight="standard" color="standard" width="0.13" laneChange="none"/>
                        <speed sOffset="0" max="13.89"/>
                    </lane>
                    <lane id="-2" type="sidewalk" level="true">
                        <link/>
                        <width sOffset="0" a="2.80" b="0" c="0" d="0"/>
                        <roadMark sOffset="0" type="solid" weight="standard" color="standard" width="0.13" laneChange="none"/>
                        <speed sOffset="0" max="13.89"/>
                    </lane>
                 </right>
            </laneSection>
        </lanes>
        <objects/>
    </road>
    <road name="Northwest Executive Center Circle" length="267.64080239" id="1670" junction="-1">
        <link>
            <predecessor elementType="junction" elementId="12"/>
            <successor elementType="junction" elementId="13"/>
        </link>
        <type s="0" type="town"/>
        <planView>
            <geometry s="0.00000000" x="3371.41089768" y="3161.22731087" hdg="1.82051428" length="17.29831686">
                <line/>
            </geometry>
            <geometry s="17.29831686" x="3367.13595302" y="3177.98907135" hdg="1.82051428" length="12.25265383">
                <paramPoly3 aU="0.00000000" bU="9.18773673" cU="9.17973730" dU="-6.13098691" aV="-0.00000000" bV="0.00000000" cV="-0.96201162" dV="0.38010428" pRange="normalized"/>
            </geometry>
            <geometry s="29.55097069" x="3364.67579957" y="3189.98981626" hdg="1.73511089" length="9.77388562">
                <paramPoly3 aU="0.00000000" bU="7.32951561" cU="7.31185956" dU="-4.87970820" aV="-0.00000000" bV="-0.00000000" cV="-0.91697809" dV="0.45299694" pRange="normalized"/>
            </geometry>
            <geometry s="39.32485630" x="3363.53675521" y="3199.69589674" hdg="1.67026371" length="13.88414645">
                <paramPoly3 aU="0.00000000" bU="10.41294727" cU="10.41296756" dU="-6.94302065" aV="-0.00000000" bV="-0.00000000" cV="-0.25353593" dV="0.08396887" pRange="normalized"/>
            </geometry>
            <geometry s="53.20900275" x="3362.32686491" y="3213.52700911" hdg="1.64575664" length="9.88381711">
                <paramPoly3 aU="0.00000000" bU="7.41177350" cU="7.42563787" dU="-4.95652072" aV="-0.00000000" bV="-0.00000000" cV="0.00828566" dV="-0.17896447" pRange="normalized"/>
            </geometry>
            <geometry s="63.09281986" x="3361.75708319" y="3223.39293431" hdg="1.57549675" length="13.87767461">
                <paramPoly3 aU="0.00000000" bU="10.40758848" cU="10.38780101" dU="-6.92847914" aV="-0.00000000" bV="0.00000000" cV="-1.11784579" dV="0.59444419" pRange="normalized"/>
            </geometry>
            <geometry s="76.97049447" x="3362.21529894" y="3237.26215167" hdg="1.53201871" length="7.69789825">
                <paramPoly3 aU="0.00000000" bU="5.77321022" cU="5.77569794" dU="-3.85170827" aV="0.00000000" bV="-0.00000000" cV="-0.03196178" dV="-0.04784742" pRange="normalized"/>
            </geometry>
            <geometry s="84.66839272" x="3362.59345244" y="3244.95047110" hdg="1.49607501" length="13.87915839">
                <paramPoly3 aU="0.00000000" bU="10.40926716" cU="10.40669412" dU="-6.93833444" aV="0.00000000" bV="-0.00000000" cV="-0.40718543" dV="0.21033686" pRange="normalized"/>
            </geometry>
            <geometry s="98.54755111" x="3363.82574159" y="3258.77467956" hdg="1.47845900" length="1.31178767">
                <paramPoly3 aU="0.00000000" bU="0.98374277" cU="0.98299564" dU="-0.65594674" aV="0.00000000" bV="0.00000000" cV="-0.08262773" dV="0.03498998" pRange="normalized"/>
            </geometry>
            <geometry s="99.85933879" x="3363.99403948" y="3260.07549468" hdg="1.41713878" length="13.88482285">
                <paramPoly3 aU="0.00000000" bU="10.41360276" cU="10.41374698" dU="-6.94258476" aV="0.00000000" bV="0.00000000" cV="-0.02470843" dV="-0.00807102" pRange="normalized"/>
            </geometry>
            <geometry s="113.74416163" x="3366.15154603" y="3273.79165080" hdg="1.41006817" length="2.88817941">
                <paramPoly3 aU="0.00000000" bU="2.16608653" cU="2.16453322" dU="-1.44324482" aV="0.00000000" bV="-0.00000000" cV="-0.14239142" dV="0.07699708" pRange="normalized"/>
            </geometry>
            <geometry s="116.63234105" x="3366.67818439" y="3276.63134487" hdg="1.38523208" length="13.88995578">
                <paramPoly3 aU="0.00000000" bU="10.41746350" cU="10.41750932" dU="-6.94502293" aV="0.00000000" bV="0.00000000" cV="0.01333642" dV="-0.01966599" pRange="normalized"/>
            </geometry>
            <geometry s="130.52229683" x="3369.24711669" y="3290.28166848" hdg="1.38212910" length="42.56087482">
                <line/>
            </geometry>
            <geometry s="173.08317165" x="3377.22940625" y="3332.08730349" hdg="1.38212910" length="11.63503499">
                <paramPoly3 aU="0.00000000" bU="8.72158188" cU="8.73175035" dU="-5.85119543" aV="0.00000000" bV="-0.00000000" cV="1.10970432" dV="-0.32303457" pRange="normalized"/>
            </geometry>
            <geometry s="184.71820664" x="3378.63267596" y="3343.63110103" hdg="1.52598232" length="10.54119190">
                <paramPoly3 aU="0.00000000" bU="7.90246859" cU="7.85260599" dU="-5.25565793" aV="0.00000000" bV="0.00000000" cV="1.66806389" dV="-0.78335375" pRange="normalized"/>
            </geometry>
            <geometry s="195.25939854" x="3378.21921754" y="3354.15961062" hdg="1.65108797" length="12.72273676">
                <paramPoly3 aU="0.00000000" bU="9.54041277" cU="9.54946595" dU="-6.37667678" aV="-0.00000000" bV="0.00000000" cV="0.52726453" dV="-0.09494765" pRange="normalized"/>
            </geometry>
            <geometry s="207.98213530" x="3376.76862603" y="3366.79718103" hdg="1.73185213" length="10.40830389">
                <paramPoly3 aU="0.00000000" bU="7.80488350" cU="7.77651143" dU="-5.19189285" aV="-0.00000000" bV="0.00000000" cV="1.18998968" dV="-0.59524206" pRange="normalized"/>
            </geometry>
            <geometry s="218.39043919" x="3374.51551020" y="3376.95685363" hdg="1.80806453" length="10.90870581">
                <paramPoly3 aU="0.00000000" bU="8.18071119" cU="8.18981055" dU="-5.46470445" aV="-0.00000000" bV="0.00000000" cV="0.10733631" dV="0.09068500" pRange="normalized"/>
            </geometry>
            <geometry s="229.29914500" x="3371.75964355" y="3387.51058577" hdg="1.86759666" length="8.73341089">
                <paramPoly3 aU="0.00000000" bU="6.54912303" cU="6.53001663" dU="-4.35864002" aV="-0.00000000" bV="-0.00000000" cV="0.89768681" dV="-0.44649413" pRange="normalized"/>
            </geometry>
            <geometry s="238.03255589" x="3368.77776403" y="3395.71784374" hdg="1.93726404" length="29.60824650">
                <line/>
            </geometry>
        </planView>
        <elevationProfile>
            <elevation s="0" a="0.00" b="0" c="0" d="0"/>
        </elevationProfile>
        <lateralProfile/>
        <lanes>
            <laneSection s="0">
                <center>
                    <lane id="0" type="none" level="true">
                        <link/>
                        <roadMark sOffset="0" type="solid" weight="standard" color="standard" width="0.13" laneChange="none"/>
                    </lane>
                </center>
                <right>
                    <lane id="-1" type="driving" level="true">
                        <link/>
                        <width sOffset="0" a="6.00" b="0" c="0" d="0"/>
                        <roadMark sOffset="0" type="solid" weight="standard" color="standard" width="0.13" laneChange="none"/>
                        <speed sOffset="0" max="13.89"/>
                    </lane>
                    <lane id="-2" type="sidewalk" level="true">
                        <link/>
                        <width sOffset="0" a="2.80" b="0" c="0" d="0"/>
                        <roadMark sOffset="0" type="solid" weight="standard" color="standard" width="0.13" laneChange="none"/>
                        <speed sOffset="0" max="13.89"/>
                    </lane>
                 </right>
            </laneSection>
        </lanes>
        <objects/>
    </road>
    <road name="Northwest 19th Way" length="1374.72554983" id="1671" junction="-1">
        <link>
            <predecessor elementType="junction" elementId="14"/>
            <successor elementType="junction" elementId="15"/>
        </link>
        <type s="0" type="town"/>
        <planView>
            <geometry s="0.00000000" x="4403.60298930" y="3504.51942147" hdg="0.36898008" length="347.93003502">
                <line/>
            </geometry>
            <geometry s="347.93003502" x="4728.11582959" y="3630.00537986" hdg="0.36898008" length="13.88999931">
                <paramPoly3 aU="0.00000000" bU="10.41749935" cU="10.41749935" dU="-6.94500043" aV="0.00000000" bV="0.00000000" cV="-0.00735337" dV="0.00245112" pRange="normalized"/>
            </geometry>
            <geometry s="361.82003433" x="4741.07273902" y="3635.01043469" hdg="0.36827421" length="189.04145430">
                <line/>
            </geometry>